data/state_estimation/SE_PT2030_Su/state_estimation_PT2030_Su_t19.csv
bus,vm_pu,va_degree,p_mw,q_mvar
1,1.042558,0.112480,-0.877417,-66.185060
2,1.043208,0.212007,-0.874005,-60.688420
3,1.044293,0.136634,-0.814446,-32.326513
4,1.041935,-0.056060,-0.823469,-43.331117
5,1.019111,0.157167,-33.457351,-26.356928
6,1.022716,0.161632,-0.891348,-7.538887
7,1.048788,-0.069251,-0.799458,94.265094
8,1.010633,0.033849,-0.787732,-0.000148
9,1.029084,-0.077884,-0.846412,-0.074814
10,1.039555,-0.081130,-0.806456,-0.005811
11,1.022449,-0.092010,-4.715561,-0.295434
12,1.010068,-0.094320,-0.770877,-0.140406
13,1.027723,-0.083772,-7.867854,-1.541706
14,1.031606,-0.075866,-0.743421,0.003270
15,1.044705,-0.056950,-0.841686,-0.007956
16,1.011851,0.154278,-0.834249,-0.078749
17,1.029003,0.080905,-0.761733,-0.037959
18,1.017362,0.030768,-0.842627,0.014667
19,1.018045,-0.132099,-0.900306,-0.026915
20,1.022700,-0.094907,-0.716844,0.008597
21,1.024249,0.078223,-0.845128,0.044205
22,1.028350,-0.062627,95.838114,-38.953851
23,1.003196,-0.111333,-0.701872,0.122181
24,1.024514,0.168574,-0.837376,-0.023400
25,1.020079,0.051408,-0.817395,-0.090204
26,1.042603,-0.072026,-4.811096,-0.264631
27,1.038317,-0.070239,-4.689347,-0.154097
28,1.031359,-0.070023,-3.608254,0.375688
29,1.023316,-0.074012,-0.813667,0.017801
30,1.032898,0.082833,30.223836,0.995018
31,1.019704,0.184985,-0.797089,0.049015
32,1.030946,0.077122,-0.802052,0.077805
33,1.035731,0.085858,-0.827716,-0.073296
34,1.022527,-0.078532,-0.845024,-0.034479
35,1.004730,0.107475,-0.872716,0.018839
36,1.018866,0.032465,-0.807211,0.036870
37,1.021241,-0.050310,-0.793606,0.051178
38,1.024901,0.087876,-0.757118,0.023345
39,1.024895,0.086117,-0.833039,0.019242
40,1.024141,0.161967,-0.864331,0.016824
41,1.023842,0.079167,-0.825571,0.014290
42,1.021185,0.137777,-0.875647,-0.038362
43,1.019660,-0.058301,-0.793672,0.024653
44,1.024558,0.088544,-0.762635,0.000584
45,1.022427,0.007929,-0.755872,-0.018380
46,1.020744,-0.021431,-0.833415,0.003772
47,1.029254,0.131134,-0.840023,0.030401
48,1.021139,0.081868,-0.755083,0.021532
49,1.027593,0.095312,-0.844901,0.002644
50,1.022106,-0.048383,-33.537307,0.041185
51,1.029498,0.145202,-0.776577,-0.011951
52,1.024498,0.044228,-0.730734,0.019046
53,1.023468,0.076680,-0.824014,0.011066
54,1.039871,0.278667,-0.769195,0.010870
55,1.019841,-0.059263,-0.753210,-0.042312
56,1.021396,-0.059060,-0.775802,0.093584
57,1.027784,0.096437,-0.850905,-0.110761
58,1.019938,-0.060963,-0.806603,0.032933
59,1.022193,-0.052178,-0.820517,0.004356
60,1.028741,0.106621,-0.760756,-0.003718
61,1.029433,0.132179,89.230752,19.384397
62,1.019314,0.187456,-0.769017,-0.079640
63,1.038015,0.252175,-0.872004,0.049331
64,1.017380,-0.008612,-0.854498,-0.118050
65,1.023683,0.160352,-0.828865,0.084865
66,1.028187,0.116366,-0.800856,0.063672
67,1.028741,0.102540,-3.061903,0.828772
68,1.023948,0.076798,-0.857818,-0.020845
69,1.024855,0.090052,-0.798568,-0.012258
70,1.028302,0.117848,-0.769719,0.027250
71,1.024373,0.082652,-0.850894,0.083498
72,1.016207,0.186163,-0.816890,0.081296
73,1.031122,0.225823,-0.772398,-0.001494
74,1.020301,-0.013976,-0.730575,-0.026103
75,1.029394,0.188670,-0.838593,0.017121
76,1.018348,-0.059281,-0.865456,0.003341
77,1.033452,0.247487,-0.776583,0.031542
78,1.021052,0.116966,-0.814768,-0.033292
79,1.030740,0.198730,-0.860961,-0.011964
80,1.045645,-0.054339,-0.839752,0.017305
81,1.039903,0.090953,-0.819019,0.054286
82,1.042464,-0.015555,-0.810879,-0.040880
83,1.045165,0.078026,-0.645092,-0.019506
84,1.044583,-0.038976,-0.871816,0.020359
85,1.037533,0.046697,-0.791562,0.018964
86,1.045364,-0.041779,-0.764993,-0.085147
87,1.048480,-0.039490,-0.775120,-0.004654
88,1.040438,0.097188,-0.809353,-0.012393
89,1.042868,-0.021001,-0.741116,0.015285
90,1.041114,0.143360,-0.871402,-0.034354
91,1.044657,0.099636,-0.829578,-0.015532
92,1.035891,0.090376,-0.739847,0.115637
93,1.040507,0.095855,-0.782912,-0.068007
94,1.040594,0.093038,-0.838749,0.078831
95,1.046082,0.087521,-0.730335,-0.081252
96,1.042330,0.113445,-0.700945,0.005698
97,1.044706,-0.040080,-0.840371,0.056274
98,1.045405,0.137116,-0.734671,-0.034977
99,1.048014,0.124228,-0.712096,0.032286
100,1.046125,-0.000146,-0.755878,0.076539
101,1.039724,0.096196,-0.787937,0.026204
102,1.031696,-0.058035,-0.821987,-0.053827
103,1.041580,0.121385,-0.793885,-0.047612
104,1.041346,0.100611,-0.851643,-0.045892
105,1.044904,-0.055846,-0.846398,0.049769
106,1.043689,0.211157,-0.800916,0.061464
107,1.037306,-0.068256,-0.841967,-0.041245
108,1.008772,0.067585,-8.244932,-7.790998
109,1.016870,-0.027832,-203.816075,-33.609395
110,1.018447,-0.102971,-179.243375,-19.032447
111,1.020053,0.044951,-131.626197,-24.784461
112,1.026327,-0.093885,-73.729224,-13.767397
113,1.032358,-0.126626,-103.594873,-3.132031
114,1.021944,0.089071,5.283571,-19.535784
115,1.003856,0.155965,-26.240549,12.018906
116,1.011687,0.017657,-293.809775,-65.432469
117,1.016373,-0.114225,-47.652365,-11.339551
118,1.015046,0.146054,28.764845,-22.050199
119,1.032500,-0.060105,-161.652001,-46.752949
120,1.022446,0.049045,-174.276419,-3.648686
121,0.999755,-0.132328,-155.456294,-47.617622
122,1.029216,0.055057,-76.423183,-52.866335
123,1.027117,-0.116113,-146.579535,-30.446960
124,1.020451,-0.029425,-123.135117,-0.189892
125,1.019210,-0.057881,-124.961400,-19.282468
126,1.030907,-0.075802,-103.681473,-24.806089
127,1.022167,0.132220,3.316234,-9.139006
128,1.029354,0.068602,-96.420627,-45.217934
129,1.023373,0.023327,-192.279582,-22.175403
130,1.014961,0.039198,-254.711606,-69.622784
131,1.026390,-0.067534,-157.193921,-33.238632
132,1.012190,0.037045,-28.188755,-4.785094
133,1.005869,-0.020021,-180.732315,28.894505
134,1.020484,0.024232,-161.330584,-1.489035
135,1.020934,-0.097401,-179.836267,-27.291557
136,1.019179,-0.116876,-205.715394,-40.886828
137,1.023104,0.027538,-143.470658,-11.168077
138,1.022194,0.076911,-119.704471,-37.642076
139,1.016366,-0.125296,-225.916141,-16.779125
140,1.022181,-0.175032,-78.921927,-9.514851
141,1.021648,-0.135661,-92.331877,-16.712318
142,1.020213,0.019275,-125.022174,-12.102582
143,1.006222,-0.098731,-86.344851,-16.156013
144,1.018960,0.074840,-69.087554,-5.061475
145,1.024119,0.059949,-181.987193,25.230169
146,1.014987,-0.063267,-0.981958,-0.403133
147,1.022933,-0.089858,-55.866445,-15.931071
148,1.009289,0.184292,-0.762318,-0.023107
149,0.994641,-0.171228,-192.150810,-51.067998
150,1.017279,0.144341,-31.962917,-4.019079
151,1.014123,-0.011052,-203.535043,-44.268775
152,1.015324,0.162411,-68.516067,-2.590256
153,1.023724,0.245480,-7.821567,-0.734256
154,1.012949,-0.052384,-97.160865,-15.279158
155,1.013874,0.177370,52.123399,-5.707862
156,1.021321,0.103132,-24.670926,4.113342
157,1.016984,0.019803,-109.874737,-8.310466
158,1.025406,0.081652,-33.627597,-13.366633
159,1.015885,-0.047627,58.873869,6.405985
160,1.026933,0.125939,11.033548,-5.679958
161,1.018766,0.124920,87.508383,9.191509
162,1.016328,0.198463,21.672599,5.424162
163,1.024124,0.074954,-23.944712,7.800070
164,1.022094,-0.059635,-10.968189,-10.262390
165,1.009282,0.237633,49.637617,-11.213538
166,1.014859,0.008887,47.236402,-20.776308
167,1.010323,0.180841,-25.063402,6.198765
168,1.019030,-0.073388,-130.958574,-62.965041
169,1.019717,-0.027540,104.887734,21.508087
170,1.019158,0.102376,-27.732058,13.866560
171,1.005363,0.068462,-49.903540,-11.187731
172,1.007820,0.186216,-27.699836,-3.399112
173,1.034977,0.088803,71.157558,-12.869951
174,1.034549,0.088476,20.193567,-3.708481
175,1.033547,0.064560,53.206875,3.837550
176,1.028146,0.054665,21.104093,26.776828
177,1.035458,0.085342,-0.825497,-0.128833
178,1.008888,0.165429,28.168358,-12.107829
179,1.035824,0.086484,30.276286,14.309980
180,1.028502,-0.080200,-0.883507,-0.067934
181,1.028129,0.177844,65.147660,2.931483
182,1.035373,0.085377,-0.803691,29.419179
183,1.048494,-0.039413,117.155666,11.352351
184,1.033358,0.082415,-0.835162,-0.143471
185,1.034208,-0.072803,-0.772021,-0.025454
186,1.025443,-0.106955,-0.816436,0.101733
187,1.018325,0.033328,25.578837,23.804031
188,1.017817,0.033199,25.746854,-12.899860
189,1.018253,0.034014,25.668405,-12.839014
190,1.023673,0.081302,-0.868501,-0.004690
191,1.040671,0.290575,183.735863,-13.090118
192,1.036928,0.267251,119.120789,-10.407736
193,1.029799,0.099248,-0.788199,0.001446
194,1.033277,0.172942,119.163478,4.264530
195,1.027679,0.091866,-0.848095,22.848309
196,1.023845,0.163410,92.182861,-27.460468
197,1.029477,0.144987,-0.724172,-0.096845
198,1.023970,0.161590,-0.885698,6.492924
199,1.024701,0.044743,-0.957963,0.022869
200,1.039206,0.280005,31.696552,4.074201
201,1.039606,0.278861,31.711142,3.986829
202,1.039933,0.279560,31.636570,3.983580
203,1.039221,0.279078,121.717896,-8.077830
204,1.021222,-0.057678,-0.824760,-0.058586
205,1.020467,-0.058628,-0.808909,0.039705
206,1.027536,0.108160,34.210895,1.148425
207,1.028260,0.106919,34.257493,0.913472
208,1.025625,0.088156,-0.776725,-0.104148
209,1.025952,0.089007,-0.717402,-0.015560
210,1.026179,0.087337,-0.873436,-0.068663
211,1.025261,0.091400,-0.842476,-0.026746
212,1.019365,0.207143,-0.921295,0.051088
213,1.021872,-0.051015,-0.811500,-0.026472
214,1.021072,-0.048681,-0.783253,-0.031128
215,1.021702,-0.049470,-0.781794,-0.079482
216,1.021895,-0.049416,-0.837236,-0.151981
217,1.022807,-0.051907,-0.841535,-0.117204
218,1.028284,0.114715,99.652340,2.001181
219,1.020436,-0.059762,-0.800650,0.004320
220,1.032366,0.106164,593.157741,202.152895
221,1.031197,0.104270,-0.863563,0.011759
222,1.020111,-0.020232,234.360929,33.424536
223,1.023935,0.134856,-0.867998,0.072463
224,1.029197,0.136697,-0.732176,0.110395
225,1.044733,0.216260,94.836469,-0.177719
226,1.048181,-0.037051,-0.800254,0.013180
227,1.043997,-0.055678,-0.826396,-36.135152
228,1.044571,-0.055500,-0.817908,9.306830
229,1.044569,0.099583,-0.890008,92.624630
230,1.045476,0.099584,-0.801169,21.934472
231,1.042780,0.144054,-0.792474,6.120585
232,1.043037,0.113340,156.621247,0.850520
233,1.043466,0.112575,156.613840,1.129254
234,1.049484,-0.036654,117.266701,-2.949221
235,1.048003,-0.037421,117.134426,-2.771054
236,1.048597,-0.037570,117.219587,-2.883896
237,1.049957,0.125343,114.394573,12.215678
238,1.049167,0.124989,114.400586,12.418826
239,1.045386,0.000033,234.361538,-2.800101
240,1.046153,0.000196,234.339794,43.418650
241,1.047088,0.093820,246.973591,6.023298
242,1.046879,0.092730,247.003982,9.497378
243,1.048704,0.124641,250.384489,16.443881
244,1.049274,0.124661,250.263731,12.392202
245,1.021837,-0.075225,-34.307274,-8.989565
246,1.027707,-0.081947,-22.049836,-5.575804
247,1.025581,-0.107019,-4.702776,0.617587
248,1.022580,0.176354,-3.045211,1.695298
249,1.028950,-0.081154,-7.474017,-0.687864
250,1.046406,-0.058317,-13.897676,29.658252
251,1.029007,0.118081,101.797142,-4.186366
252,1.027816,0.227062,92.106442,-10.044056
253,1.026368,0.220773,65.613355,-1.116177
254,1.035098,0.129625,108.342794,-10.382317
255,1.047772,-0.061626,-29.879458,29.891313
256,1.023062,0.078263,-95.792876,-15.171106
257,1.022416,0.148313,-4.108777,1.300146
258,1.024489,0.093611,-3.680424,1.332076
259,1.022703,0.173893,-3.609519,2.099223
260,0.997281,-0.076461,-118.150449,-25.311706
261,1.017983,0.186226,-1.884939,1.438520
262,1.024647,0.142115,73.770503,-3.463337
263,1.020197,0.214631,74.995744,-10.926859
264,1.028560,0.137956,108.553065,-9.866118
265,1.023397,0.134122,94.539136,-10.158514
266,1.019306,0.206933,103.054656,-20.746717
267,1.029207,0.189260,123.655608,-32.297607
268,1.041921,0.148029,140.527764,16.797640
269,1.004451,0.171729,-0.850113,-0.004580
270,1.004616,0.172960,-0.754962,-0.055087
271,1.005002,0.187150,-0.836523,0.021687
272,1.008191,0.218076,-0.733305,0.060056
273,1.019353,0.043794,29.297986,6.588289
274,1.018525,0.042325,-0.760860,0.043571
275,1.017795,0.040663,-0.799512,0.040071
276,1.013042,0.026663,-0.770863,-0.012615
277,1.014193,0.025381,-0.793165,-0.046826
278,1.012997,0.024132,-0.800216,0.004851
279,1.011995,0.019155,-0.818980,-0.005194
280,1.014632,0.040394,-0.764881,0.049404
281,1.016700,0.040993,-0.754088,0.015147
282,1.018269,0.042577,-0.786653,-0.016300
283,1.012429,0.037061,-0.933870,0.024080
284,1.020666,0.053074,-0.828096,0.011401
285,1.020870,0.053463,-0.811507,0.034831
286,1.023338,0.060170,-0.732179,-0.000345
287,1.006614,-0.018162,-0.712891,0.032546
288,1.006632,-0.018100,-0.872880,0.005488
289,1.008007,-0.009710,-0.817166,-0.009206
290,1.009450,-0.003246,-0.847115,-0.080171
291,1.009174,-0.002727,-0.818415,0.008561
292,1.008308,-0.002711,-0.673897,-0.022653
293,1.010805,0.011727,23.992498,-7.330852
294,1.010190,0.182128,-0.898376,-0.064805
295,1.009922,0.180162,-0.830033,-0.034643
296,1.010934,0.180197,-0.861504,-0.032414
297,1.010841,0.179026,-0.914590,0.035550
298,1.009108,0.221314,-0.855279,0.032679
299,1.008966,0.220231,-0.791432,-0.056204
300,1.008810,0.221374,-0.911063,0.000024
301,1.008949,0.209132,-0.747796,0.050743
302,1.008487,0.200188,-0.828898,-0.022915
303,1.008127,0.190036,-0.803199,0.077494
304,1.008539,0.190674,-0.821639,0.080416
